LAMMPS (2 Aug 2023 - Update 3)

#########################################################
#                      Basic Input                      #
#########################################################
units           metal     # K, bar, ps, A
box             tilt large

The 'box' command has been removed and will be ignored

boundary        p p f
newton          on
read_data       input.data
Reading data file ...
  orthogonal box = (0 0 0) to (11.65317 10.091941 38.509432)
  reading atoms ...
  216 atoms
mass        1   18.998403163
mass        2   1.008
mass        3   126.90447
mass        4   14.007
mass        5   28.085

variable        element_list    string  "F H I N Si"

#########################################################
#                SEVENNET-0 + D3  hybrid                #
#########################################################
pair_style      hybrid/overlay      e3gnn    d3 9000 1600 damp_bj pbe
PairE3GNN using device : CUDA
pair_coeff      * * e3gnn /data2/shared_data/pretrained/7net_chgTot/deployed_serial.pt  F H I N Si
Chemical specie 'F' is assigned to type 1
Chemical specie 'H' is assigned to type 2
Chemical specie 'I' is assigned to type 3
Chemical specie 'N' is assigned to type 4
Chemical specie 'Si' is assigned to type 5
from sevenn version '0.9.1' single precision model trained at 2024-07-10 is loaded
pair_coeff      * * d3 F H I N Si

#########################################################
#                   Slab settings                       #
#########################################################

variable    fix_h       equal   4.0

region      rFixed      block   INF INF INF INF 0.0 4
group       gBottom     region  rFixed
68 atoms in group gBottom
velocity    gBottom     set     0.0 0.0 0.0
fix         frz_bot     gBottom     setforce    0.0 0.0 0.0

#########################################################
#                 NVT MD variables                      #
#########################################################

variable        T_nvt           equal   150
variable        time_nvt        equal   1

variable        timestep_nvt    equal   0.001       # ps unit
timestep        0.001
variable        step_nvt        equal   $(round(v_time_nvt/v_timestep_nvt))
variable        step_nvt        equal   1000

#########################################################
#                 NVE + NVT MD                          #
#########################################################
region      rMove      block   EDGE EDGE   EDGE EDGE   4 EDGE
group       gMove      region  rMove
148 atoms in group gMove
velocity    gMove      create 150 408301 dist gaussian

variable    h_reflect   equal   33.509432000000004

fix         top         all wall/reflect zhi 33.509432
fix         my_NVT      gMove    nvt     temp    150 150 0.1

#########################################################
#                       LOG                             #
#########################################################
variable        log_step        equal   100
thermo_style    custom          step pe ke etotal fmax press cpu tpcpu spcpu
thermo          100
variable        path_dump      string  dump.lammps
variable        path_output    string  FINAL.coo
dump            my_dump     all custom 100 dump.lammps                             id type element xu yu zu fx fy fz
dump_modify     my_dump     sort id     element F H I N Si

#########################################################
#                      Run                              #
#########################################################
run 1000
Step         PotEng         KinEng         TotEng          Fmax          Press           CPU           T/CPU          S/CPU
0  -998.94876      2.8501862     -996.09857      1.6857532      4565.872       0              0              0
Averages over the last 6 of 11 rows, steps 500 to 1000:
PotEng KinEng TotEng Fmax Press
-1011.59 2.76217 -1008.82 1.44025 -1855.56
Loop time of 48.1369 on 1 procs for 1000 steps with 216 atoms

write_data      FINAL.coo
System init for write_data ...
